{"result": "Here is the output for the given text and entity types:\n\n(\"entity\"<|>EARTH<|>GEO<|>Planet where the lighthouse stands)\n##\n(\"entity\"<|>LIGHTHOUSE<|>EVENT<|>Lighthouse standing on a reef)\n##\n(\"entity\"<|>REEF<|>GEO<|>Underwater rock formation near shore)\n##\n(\"entity\"<|>SHORE<|>GEO<|>Land bordering the sea)\n##\n(\"entity\"<|>WIND<|>EVENT<|>Force that blows across the sea)\n##\n(\"entity\"<|>SEAWATER<|>EVENT<|>Water that surrounds the reef)\n##\n(\"entity\"<|>STORM-BIRDS<|>EVENT<|>Birds born of the wind and seaweed)\n##\n(\"entity\"<|>FIRE<|>EVENT<|>Flame used for warmth and light)\n##\n(\"entity\"<|>LOOPOUT<|>GEO<|>Opening in the lighthouse wall)\n##\n(\"entity\"<|>TABLE<|>GEO<|>Surface where two men sat)\n##\n(\"entity\"<|>CAN OF GROG<|>EVENT<|>Container holding a drink)\n##\n(\"entity\"<|>MERRY CHRISTMAS<|>EVENT<|>Holiday celebrated by the two men)\n##\n(\"entity\"<|>SONG<|>EVENT<|>Music sung by one of the men)\n##\n(\"entity\"<|>GHOST<|>EVENT<|>Spectral figure that appears to Scrooge)\n##\n(\"entity\"<|>SHIP<|>EVENT<|>Vessel sailing across the sea)\n##\n(\"entity\"<|>HELMSMAN<|>PERSON<|>Person steering the ship)\n##\n(\"entity\"<|>LOOK-OUT<|>PERSON<|>Person scanning the horizon for signs of land)\n##\n(\"entity\"<|>OFFICERS<|>PERSON<|>People in charge of the ship's operations)\n##\n(\"relationship\"<|>EARTH<|>LIGHTHOUSE<|>The lighthouse stands on the earth<|>1)\n##\n(\"relationship\"<|>REEF<|>SHORE<|>The reef is near the shore<|>1)\n##\n(\"relationship\"<|>WIND<|>SEAWATER<|>The wind affects the seawater<|>1)\n##\n(\"relationship\"<|>STORM-BIRDS<|>WIND<|>Storm-birds are born of the wind<|>1)\n##\n(\"relationship\"<|>FIRE<|>LOOPOUT<|>A fire is lit through the loophole<|>1)\n##\n(\"relationship\"<|>TABLE<|>CAN OF GROG<|>The two men sit at a table with a can of grog<|>1)\n##\n(\"relationship\"<|>MERRY CHRISTMAS<|>SONG<|>The song is sung on Merry Christmas<|>1)\n##\n(\"relationship\"<|>SHIP<|>HELMSMAN<|>The helmsman steers the ship<|>1)\n##\n(\"relationship\"<|>SHIP<|>LOOK-OUT<|>The look-out scans the horizon for signs of land<|>1)\n##\n(\"relationship\"<|>SHIP<|>OFFICERS<|>The officers are in charge of the ship's operations<|>1)\n\nNote that some relationships may seem trivial or obvious, but they are all based on the text and entity types provided.", "input": "\n-Goal-\nGiven a text document that is potentially relevant to this activity and a list of entity types, identify all entities of those types from the text and all relationships among the identified entities.\n \n-Steps-\n1. Identify all entities. For each identified entity, extract the following information:\n- entity_name: Name of the entity, capitalized\n- entity_type: One of the following types: [organization,person,geo,event]\n- entity_description: Comprehensive description of the entity's attributes and activities\nFormat each entity as (\"entity\"<|><entity_name><|><entity_type><|><entity_description>)\n \n2. From the entities identified in step 1, identify all pairs of (source_entity, target_entity) that are *clearly related* to each other.\nFor each pair of related entities, extract the following information:\n- source_entity: name of the source entity, as identified in step 1\n- target_entity: name of the target entity, as identified in step 1\n- relationship_description: explanation as to why you think the source entity and the target entity are related to each other\n- relationship_strength: a numeric score indicating strength of the relationship between the source entity and target entity\n Format each relationship as (\"relationship\"<|><source_entity><|><target_entity><|><relationship_description><|><relationship_strength>)\n \n3. Return output in English as a single list of all the entities and relationships identified in steps 1 and 2. Use **##** as the list delimiter.\n \n4. When finished, output <|COMPLETE|>\n \n######################\n-Examples-\n######################\nExample 1:\nEntity_types: ORGANIZATION,PERSON\nText:\nThe Verdantis's Central Institution is scheduled to meet on Monday and Thursday, with the institution planning to release its latest policy decision on Thursday at 1:30 p.m. PDT, followed by a press conference where Central Institution Chair Martin Smith will take questions. Investors expect the Market Strategy Committee to hold its benchmark interest rate steady in a range of 3.5%-3.75%.\n######################\nOutput:\n(\"entity\"<|>CENTRAL INSTITUTION<|>ORGANIZATION<|>The Central Institution is the Federal Reserve of Verdantis, which is setting interest rates on Monday and Thursday)\n##\n(\"entity\"<|>MARTIN SMITH<|>PERSON<|>Martin Smith is the chair of the Central Institution)\n##\n(\"entity\"<|>MARKET STRATEGY COMMITTEE<|>ORGANIZATION<|>The Central Institution committee makes key decisions about interest rates and the growth of Verdantis's money supply)\n##\n(\"relationship\"<|>MARTIN SMITH<|>CENTRAL INSTITUTION<|>Martin Smith is the Chair of the Central Institution and will answer questions at a press conference<|>9)\n<|COMPLETE|>\n\n######################\nExample 2:\nEntity_types: ORGANIZATION\nText:\nTechGlobal's (TG) stock skyrocketed in its opening day on the Global Exchange Thursday. But IPO experts warn that the semiconductor corporation's debut on the public markets isn't indicative of how other newly listed companies may perform.\n\nTechGlobal, a formerly public company, was taken private by Vision Holdings in 2014. The well-established chip designer says it powers 85% of premium smartphones.\n######################\nOutput:\n(\"entity\"<|>TECHGLOBAL<|>ORGANIZATION<|>TechGlobal is a stock now listed on the Global Exchange which powers 85% of premium smartphones)\n##\n(\"entity\"<|>VISION HOLDINGS<|>ORGANIZATION<|>Vision Holdings is a firm that previously owned TechGlobal)\n##\n(\"relationship\"<|>TECHGLOBAL<|>VISION HOLDINGS<|>Vision Holdings formerly owned TechGlobal from 2014 until present<|>5)\n<|COMPLETE|>\n\n######################\nExample 3:\nEntity_types: ORGANIZATION,GEO,PERSON\nText:\nFive Aurelians jailed for 8 years in Firuzabad and widely regarded as hostages are on their way home to Aurelia.\n\nThe swap orchestrated by Quintara was finalized when $8bn of Firuzi funds were transferred to financial institutions in Krohaara, the capital of Quintara.\n\nThe exchange initiated in Firuzabad's capital, Tiruzia, led to the four men and one woman, who are also Firuzi nationals, boarding a chartered flight to Krohaara.\n\nThey were welcomed by senior Aurelian officials and are now on their way to Aurelia's capital, Cashion.\n\nThe Aurelians include 39-year-old businessman Samuel Namara, who has been held in Tiruzia's Alhamia Prison, as well as journalist Durke Bataglani, 59, and environmentalist Meggie Tazbah, 53, who also holds Bratinas nationality.\n######################\nOutput:\n(\"entity\"<|>FIRUZABAD<|>GEO<|>Firuzabad held Aurelians as hostages)\n##\n(\"entity\"<|>AURELIA<|>GEO<|>Country seeking to release hostages)\n##\n(\"entity\"<|>QUINTARA<|>GEO<|>Country that negotiated a swap of money in exchange for hostages)\n##\n##\n(\"entity\"<|>TIRUZIA<|>GEO<|>Capital of Firuzabad where the Aurelians were being held)\n##\n(\"entity\"<|>KROHAARA<|>GEO<|>Capital city in Quintara)\n##\n(\"entity\"<|>CASHION<|>GEO<|>Capital city in Aurelia)\n##\n(\"entity\"<|>SAMUEL NAMARA<|>PERSON<|>Aurelian who spent time in Tiruzia's Alhamia Prison)\n##\n(\"entity\"<|>ALHAMIA PRISON<|>GEO<|>Prison in Tiruzia)\n##\n(\"entity\"<|>DURKE BATAGLANI<|>PERSON<|>Aurelian journalist who was held hostage)\n##\n(\"entity\"<|>MEGGIE TAZBAH<|>PERSON<|>Bratinas national and environmentalist who was held hostage)\n##\n(\"relationship\"<|>FIRUZABAD<|>AURELIA<|>Firuzabad negotiated a hostage exchange with Aurelia<|>2)\n##\n(\"relationship\"<|>QUINTARA<|>AURELIA<|>Quintara brokered the hostage exchange between Firuzabad and Aurelia<|>2)\n##\n(\"relationship\"<|>QUINTARA<|>FIRUZABAD<|>Quintara brokered the hostage exchange between Firuzabad and Aurelia<|>2)\n##\n(\"relationship\"<|>SAMUEL NAMARA<|>ALHAMIA PRISON<|>Samuel Namara was a prisoner at Alhamia prison<|>8)\n##\n(\"relationship\"<|>SAMUEL NAMARA<|>MEGGIE TAZBAH<|>Samuel Namara and Meggie Tazbah were exchanged in the same hostage release<|>2)\n##\n(\"relationship\"<|>SAMUEL NAMARA<|>DURKE BATAGLANI<|>Samuel Namara and Durke Bataglani were exchanged in the same hostage release<|>2)\n##\n(\"relationship\"<|>MEGGIE TAZBAH<|>DURKE BATAGLANI<|>Meggie Tazbah and Durke Bataglani were exchanged in the same hostage release<|>2)\n##\n(\"relationship\"<|>SAMUEL NAMARA<|>FIRUZABAD<|>Samuel Namara was a hostage in Firuzabad<|>2)\n##\n(\"relationship\"<|>MEGGIE TAZBAH<|>FIRUZABAD<|>Meggie Tazbah was a hostage in Firuzabad<|>2)\n##\n(\"relationship\"<|>DURKE BATAGLANI<|>FIRUZABAD<|>Durke Bataglani was a hostage in Firuzabad<|>2)\n<|COMPLETE|>\n\n######################\n-Real Data-\n######################\nEntity_types: organization,person,geo,event\nText: the earth.\n\nBuilt upon a dismal reef of sunken rocks, some league or so from shore,\non which the waters chafed and dashed, the wild year through, there\nstood a solitary lighthouse. Great heaps of seaweed clung to its base,\nand storm-birds--born of the wind, one might suppose, as seaweed of the\nwater--rose and fell about it, like the waves they skimmed.\n\nBut, even here, two men who watched the light had made a fire, that\nthrough the loophole in the thick stone wall shed out a ray of\nbrightness on the awful sea. Joining their horny hands over the rough\ntable at which they sat, they wished each other Merry Christmas in their\ncan of grog; and one of them--the elder too, with his face all damaged\nand scarred with hard weather, as the figure-head of an old ship might\nbe--struck up a sturdy song that was like a gale in itself.\n\nAgain the Ghost sped on, above the black and heaving sea--on, on--until\nbeing far away, as he told Scrooge, from any shore, they lighted on a\nship. They stood beside the helmsman at the wheel, the look-out in the\nbow, the officers who had the watch; dark, ghostly figures in their\nseveral stations; but every man among them hummed a Christmas tune, or\n######################\nOutput:", "parameters": {"model": "llama3.1", "temperature": 0.0, "frequency_penalty": 0.0, "presence_penalty": 0.0, "top_p": 1.0, "max_tokens": 4000, "n": 1}, "history": null}